&HEAD CHID='macfp_black_pmma_nist_stmu_fsri_R3'/

&MESH XB=0,1,0,1,0,1,IJK=5,1,4/

&MISC SOLID_PHASE_ONLY=T,TMPA=20.9/

&VENT XB=0.0,0.2,0,1,0,0,SURF_ID='SAMPLE1'/

&TIME T_END=500,DT=0.01/

&SPEC ID='MMA',FORMULA='C5H8O'/
&REAC FUEL='MMA'/

&MATL ID='KPM',
      DENSITY = 256.,
      SPECIFIC_HEAT_RAMP = 'KPM_CP',
      CONDUCTIVITY_RAMP = 'KPM_K',
      EMISSIVITY = 0.92/

&MATL ID='PMMA1',
      DENSITY=1177,
      CONDUCTIVITY=0.20,
      SPECIFIC_HEAT=2.13,
      N_REACTIONS=1,
      A(1)=5.81E5,
      E(1)=71300.,
      HEAT_OF_REACTION(1)=1740.,
      SPEC_ID='MMA',
      NU_SPEC=1.0,
      ABSORPTION_COEFFICIENT=2620,
      EMISSIVITY = 0.963/

&MATL ID='PMMA2',
      DENSITY=1177,
      CONDUCTIVITY=0.20,
      SPECIFIC_HEAT=2.13,
      N_REACTIONS=1,
      A(1)=4.05E11,
      E(1)=168000.,
      HEAT_OF_REACTION(1)=914.,
      SPEC_ID='MMA',
      NU_SPEC=1.0,
      ABSORPTION_COEFFICIENT=2620,
      EMISSIVITY = 0.963/

&MATL ID='PMMA3',
      DENSITY=1177,
      CONDUCTIVITY=0.20,
      SPECIFIC_HEAT=2.13,
      ABSORPTION_COEFFICIENT=2620,
      EMISSIVITY = 0.963/

&MATL ID='AL',
      DENSITY = 2700.,
      SPECIFIC_HEAT = 0.89,
      CONDUCTIVITY = 100.,
      EMISSIVITY = 0.3/

&SURF ID='SAMPLE1',
      HEAT_TRANSFER_COEFFICIENT=13.,
      COLOR='WHITE',
      MATL_ID(1,1:3)='PMMA1','PMMA2','PMMA3',
      MATL_MASS_FRACTION(1,1:3)=0.035,0.955,0.01,
      MATL_ID(2,1)='KPM'
      MATL_ID(3,1)='AL',
      THICKNESS=0.006261,0.02852,0.00635,
      STRETCH_FACTOR=1,1,1,
      EXTERNAL_FLUX=50/

&RAMP ID='KPM_CP', T=26.85, F=0.7653/
&RAMP ID='KPM_CP', T=226.85, F=1.0211/
&RAMP ID='KPM_CP', T=526.85, F=1.2128/
&RAMP ID='KPM_CP', T=626.85, F=1.1711/
&RAMP ID='KPM_CP', T=1326.85, F=1.2834/

&RAMP ID='KPM_K', T=260, F=0.0576/
&RAMP ID='KPM_K', T=538, F=0.085/
&RAMP ID='KPM_K', T=816, F=0.125/
&RAMP ID='KPM_K', T=1093, F=0.183/

&DEVC ID='SD',QUANTITY='CONTROL VALUE',CTRL_ID='SDs',UNITS='kg/m2'/
&DEVC ID='MF',QUANTITY='CONTROL VALUE',CTRL_ID='SDn'/
&DEVC ID='M',QUANTITY='CONTROL VALUE',CTRL_ID='MP',UNITS='g'/
&DEVC XYZ=0.1,0.5,0.0,QUANTITY='INSIDE WALL TEMPERATURE',DEPTH=-0.03487,ID='TSB1K',IOR=3,UNITS='K',CONVERSION_ADDEND=273.15/

&DEVC XYZ=0.1,0.5,0.0,QUANTITY='WALL TEMPERATURE',ID='TW1',IOR=3/
&DEVC XYZ=0.1,0.5,0.0,QUANTITY='INSIDE WALL TEMPERATURE',DEPTH=-0.03487,ID='TSB1',IOR=3/
&DEVC XYZ=0.1,0.5,0.0,QUANTITY='INSIDE WALL TEMPERATURE',DEPTH=-0.00635,ID='TAL1',IOR=3/
&DEVC XYZ=0.1,0.5,0.0,QUANTITY='BACK WALL TEMPERATURE',ID='TB1',IOR=3/
&DEVC XYZ=0.1,0.5,0.0,QUANTITY='WALL THICKNESS',ID='DX1',IOR=3/
&DEVC XYZ=0.1,0.5,0.0,QUANTITY='SURFACE DENSITY',ID='SD1',IOR=3/
&DEVC XYZ=0.1,0.5,0.0,QUANTITY='SURFACE DENSITY',MATL_ID='PMMA1',ID='SD_11',IOR=3/
&DEVC XYZ=0.1,0.5,0.0,QUANTITY='SURFACE DENSITY',MATL_ID='PMMA2',ID='SD_12',IOR=3/
&DEVC XYZ=0.1,0.5,0.0,QUANTITY='SURFACE DENSITY',MATL_ID='PMMA3',ID='SD_13',IOR=3/
&DEVC XYZ=0.1,0.5,0.0,QUANTITY='BURNING RATE',ID='BR1',IOR=3/

&CTRL ID='SDsum',FUNCTION_TYPE='SUM',INPUT_ID='SD_11','SD_12','SD_13'/
&CTRL ID='SDs',FUNCTION_TYPE='SUBTRACT',INPUT_ID='SDsum','CONSTANT',CONSTANT=0.40821/
&CTRL ID='SDn',FUNCTION_TYPE='DIVIDE',INPUT_ID='SDs','CONSTANT',CONSTANT=6.9615/
&CTRL ID='MP',FUNCTION_TYPE='MULTIPLY',INPUT_ID='SDn','CONSTANT',CONSTANT=26.689/
